* ======================================================================
* 2kb SRAM Pre-Simulation: Write and Read Operations Validation (Compact)
* Fixed: MUX tracking issue via removal of dummy load, restoring Ans functionality
* ======================================================================

.PROTECT
.INCLUDE '/RAID2/COURSE/2026_Spring/es26mcs/es26mcs068/7nm_TT.pm'
.UNPROTECT

.OPTION POST=1 FSDB 
.OPTION RUNLVL=6
.OPTION METHOD=GEAR
.OPTION CAPTAB=1

.PARAM SUP = 0.7V
.GLOBAL VDD GND
VVDD VDD GND 'SUP'

* ======================================================================
* 1. 基礎邏輯與核心元件 (包含強健的 Buffer Tree)
* ======================================================================
* 最小 Buffer
.SUBCKT INV_MIN IN OUT
Mp OUT IN VDD VDD pmos_rvt nfin=2
Mn OUT IN GND GND nmos_rvt nfin=1
.ENDS
.SUBCKT BUF_MIN IN OUT
X1 IN N1 INV_MIN
X2 N1 OUT INV_MIN
.ENDS

* 驅動級 Buffer
.SUBCKT INV_X4 IN OUT
Mp OUT IN VDD VDD pmos_rvt nfin=8
Mn OUT IN GND GND nmos_rvt nfin=4
.ENDS
.SUBCKT BUF_X4 IN OUT
X1 IN N1 INV_X4
X2 N1 OUT INV_X4
.ENDS
.SUBCKT BUF_X16 IN OUT
X1 IN N1 BUF_X4
X2 N1 OUT BUF_X4
.ENDS
.SUBCKT BUF_X64 IN OUT
X1 IN N1 BUF_X16
X2 N1 OUT BUF_X16
.ENDS

* ======================================================================
* 2. Ans 子電路 (SRAM_CELL, MUX, SENSE_AMP, WRITE_DRIVER)
* ======================================================================
.subckt SRAM_CELL WL BL BLB VSS VDD
M_pl  q   qb  VDD VDD pmos_sram L=2e-08 W=2.7e-08 NFIN=1
M_nl  q   qb  VSS VSS nmos_sram L=2e-08 W=2.7e-08 NFIN=2
M_pr  qb  q   VDD VDD pmos_sram L=2e-08 W=2.7e-08 NFIN=1
M_nr  qb  q   VSS VSS nmos_sram L=2e-08 W=2.7e-08 NFIN=2
M_pgl BL  WL  q   VSS nmos_sram L=2e-08 W=2.7e-08 NFIN=2
M_pgr BLB WL  qb  VSS nmos_sram L=2e-08 W=2.7e-08 NFIN=2
.ends

.subckt PRECHARGE_UNIT PRE BL BLB VDD
M_pr1 BL  PRE VDD VDD pmos_sram L=2e-08 W=2.7e-08 NFIN=2
M_pr2 BLB PRE VDD VDD pmos_sram L=2e-08 W=2.7e-08 NFIN=2
M_pr3 BL  PRE BLB VDD pmos_sram L=2e-08 W=2.7e-08 NFIN=2
.ends

.subckt COL_MUX_2TO1 BL_in0 BLB_in0 BL_in1 BLB_in1 BL_out BLB_out sel0 sel1 VSS
M_mux0 BL_out  sel0 BL_in0  VSS nmos_sram L=2e-08 W=2.7e-08 NFIN=4
M_mux1 BLB_out sel0 BLB_in0 VSS nmos_sram L=2e-08 W=2.7e-08 NFIN=4
M_mux2 BL_out  sel1 BL_in1  VSS nmos_sram L=2e-08 W=2.7e-08 NFIN=4
M_mux3 BLB_out sel1 BLB_in1 VSS nmos_sram L=2e-08 W=2.7e-08 NFIN=4
.ends

.subckt SENSE_AMP_LATCH BL BLB sense sense_b SA_EN VDD VSS
M_pr_s1 sense   SA_EN VDD VDD pmos_sram L=2e-08 W=2.7e-08 NFIN=4
M_pr_s2 sense_b SA_EN VDD VDD pmos_sram L=2e-08 W=2.7e-08 NFIN=4
M_pr_eq sense   SA_EN sense_b VDD pmos_sram L=2e-08 W=2.7e-08 NFIN=4
M_pr_d1 di      SA_EN VDD VDD pmos_sram L=2e-08 W=2.7e-08 NFIN=4
M_pr_d2 dib     SA_EN VDD VDD pmos_sram L=2e-08 W=2.7e-08 NFIN=4
M_sa1 sense   sense_b VDD VDD pmos_sram L=2e-08 W=2.7e-08 NFIN=4
M_sa2 sense_b sense   VDD VDD pmos_sram L=2e-08 W=2.7e-08 NFIN=4
M_sa3 sense   sense_b di  VSS nmos_sram L=2e-08 W=2.7e-08 NFIN=4
M_sa4 sense_b sense   dib VSS nmos_sram L=2e-08 W=2.7e-08 NFIN=4
M_in1 di  BLB tail VSS nmos_sram L=2e-08 W=2.7e-08 NFIN=4
M_in2 dib BL  tail VSS nmos_sram L=2e-08 W=2.7e-08 NFIN=4
M_tail tail SA_EN VSS VSS nmos_sram L=2e-08 W=2.7e-08 NFIN=4
.ends

.subckt WRITE_DRIVER D D_bar WR_EN BL_out BLB_out VDD VSS
M_n1 BL_out WR_EN   D VSS nmos_sram L=2e-08 W=2.7e-08 NFIN=4
M_p1 BL_out WR_EN_b D VDD pmos_sram L=2e-08 W=2.7e-08 NFIN=4
M_n2 BLB_out WR_EN   D_bar VSS nmos_sram L=2e-08 W=2.7e-08 NFIN=4
M_p2 BLB_out WR_EN_b D_bar VDD pmos_sram L=2e-08 W=2.7e-08 NFIN=4
M_invp WR_EN_b WR_EN VDD VDD pmos_sram L=2e-08 W=2.7e-08 NFIN=2
M_invn WR_EN_b WR_EN VSS VSS nmos_sram L=2e-08 W=2.7e-08 NFIN=1
.ends

.subckt NAND2 A B Y VDD VSS
Mp1 Y A VDD VDD pmos_sram L=2e-08 W=2.7e-08 NFIN=2
Mp2 Y B VDD VDD pmos_sram L=2e-08 W=2.7e-08 NFIN=2
Mn1 Y A n1  VSS nmos_sram L=2e-08 W=2.7e-08 NFIN=2
Mn2 n1 B VSS VSS nmos_sram L=2e-08 W=2.7e-08 NFIN=2
.ends

.subckt INV_S in out VDD VSS
M_p out in VDD VDD pmos_sram L=2e-08 W=2.7e-08 NFIN=1
M_n out in VSS VSS nmos_sram L=2e-08 W=2.7e-08 NFIN=1
.ends
.subckt INV_M in out VDD VSS
M_p out in VDD VDD pmos_sram L=2e-08 W=2.7e-08 NFIN=2
M_n out in VSS VSS nmos_sram L=2e-08 W=2.7e-08 NFIN=2
.ends
.subckt INV_L in out VDD VSS
M_p out in VDD VDD pmos_sram L=2e-08 W=2.7e-08 NFIN=4
M_n out in VSS VSS nmos_sram L=2e-08 W=2.7e-08 NFIN=4
.ends

* ======================================================================
* 3. 架構封裝 (Compact ROW / COL_PERIPHERAL / GLOBAL_CTRL)
* ======================================================================

* 周邊控制邏輯：負責 Precharge, Mux, WD, SA
.SUBCKT COL_PERIPHERAL SEL0 SEL1 D_IN WEN CLK SAEN PRE BL0 BLB0 BL1 BLB1 Q_OUT
X_pre0 PRE BL0 BLB0 VDD PRECHARGE_UNIT
X_pre1 PRE BL1 BLB1 VDD PRECHARGE_UNIT
X_mux BL0 BLB0 BL1 BLB1 BL_CH BLB_CH SEL0 SEL1 GND COL_MUX_2TO1
X_wd_inv D_IN D_IN_B VDD GND INV_L
X_wd D_IN D_IN_B WEN BL_CH BLB_CH VDD GND WRITE_DRIVER
X_sa BL_CH BLB_CH sense sense_b SAEN VDD GND SENSE_AMP_LATCH
X_out_buf sense_b Q_OUT VDD GND INV_M
.ENDS

* 頂層核心時脈與讀寫控制
.SUBCKT GLOBAL_CTRL CLK WEN PRE WR_EN SAEN
X_pre_buf1 CLK clk_b VDD GND INV_S
X_pre_buf2 clk_b PRE VDD GND INV_L
X_wen_inv WEN WEN_b VDD GND INV_S
X_wr_nand CLK WEN_b WR_EN_nand VDD GND NAND2
X_wr_buf  WR_EN_nand WR_EN VDD GND INV_L
X_d1 CLK clk_d1 VDD GND INV_S
X_d2 clk_d1 clk_d2 VDD GND INV_S
X_d3 clk_d2 clk_d3 VDD GND INV_S
X_d4 clk_d3 clk_d4 VDD GND INV_S
X_d5 clk_d4 clk_d5 VDD GND INV_S
X_d6 clk_d5 clk_d6 VDD GND INV_S
X_d7 clk_d6 clk_d7 VDD GND INV_S
X_d8 clk_d7 clk_d8 VDD GND INV_S
X_d9 clk_d8 clk_d9 VDD GND INV_S
X_d10 clk_d9 clk_d10 VDD GND INV_S
X_d11 clk_d10 clk_d11 VDD GND INV_S
X_d12 clk_d11 clk_d12 VDD GND INV_S
X_d13 clk_d12 clk_d13 VDD GND INV_S
X_d14 clk_d13 clk_d14 VDD GND INV_S
X_d15 clk_d14 clk_d15 VDD GND INV_S
X_d16 clk_d15 clk_d16 VDD GND INV_S
X_d17 clk_d16 clk_d17 VDD GND INV_S
X_d18 clk_d17 clk_d18 VDD GND INV_S
X_d19 clk_d18 clk_d19 VDD GND INV_S
X_d20 clk_d19 clk_d20 VDD GND INV_S
X_d21 clk_d20 clk_d21 VDD GND INV_S
X_d22 clk_d21 clk_d22 VDD GND INV_S
X_d23 clk_d22 clk_d23 VDD GND INV_S
X_d24 clk_d23 clk_d24 VDD GND INV_S
X_d25 clk_d24 clk_d25 VDD GND INV_S
X_d26 clk_d25 clk_d26 VDD GND INV_S
X_d27 clk_d26 clk_d27 VDD GND INV_S
X_d28 clk_d27 clk_d28 VDD GND INV_S
X_d29 clk_d28 clk_d29 VDD GND INV_S
X_d30 clk_d29 clk_d30 VDD GND INV_S
X_d31 clk_d30 clk_d31 VDD GND INV_S
X_d32 clk_d31 clk_delayed VDD GND INV_S
X_sa_nand clk_delayed WEN SA_EN_nand VDD GND NAND2
X_sa_buf  SA_EN_nand SA_EN VDD GND INV_L
.ENDS

* ======================================================================
* 4. 系統核心整合 (Top Level Pre-Sim Structure)
* ======================================================================
X_CTRL CLK WEN PRE WR_EN SAEN GLOBAL_CTRL

X_a0_inv A0 A0_b VDD GND INV_S
X_sel0_buf A0 A0_sel0 VDD GND INV_L
X_sel1_buf A0_b A0_sel1 VDD GND INV_L

* 引入全新的 3 組 2-to-4 Decoder
.INCLUDE 'decoder_6to64_3x2to4.sp'

* 實體化 6-to-64 Row Decoder
X_ROW_DEC CLK A6 A5 A4 A3 A2 A1 WL0 WL1 WL2 WL3 WL4 WL5 WL6 WL7 WL8 WL9 WL10 WL11 WL12 WL13 WL14 WL15 WL16 WL17 WL18 WL19 WL20 WL21 WL22 WL23 WL24 WL25 WL26 WL27 WL28 WL29 WL30 WL31 WL32 WL33 WL34 WL35 WL36 WL37 WL38 WL39 WL40 WL41 WL42 WL43 WL44 WL45 WL46 WL47 WL48 WL49 WL50 WL51 WL52 WL53 WL54 WL55 WL56 WL57 WL58 WL59 WL60 WL61 WL62 WL63 VDD GND ROW_DECODER_3X2TO4

* 為了避免任何 HSPICE 陣列語法的解析問題，這裡直接展開所有的 64 列 x 32 行 (2048 顆 Cell)：
* Row 0
X_cell_0_0 WL0 BL[0] BLB[0] GND VDD SRAM_CELL
X_cell_0_1 WL0 BL[1] BLB[1] GND VDD SRAM_CELL
X_cell_0_2 WL0 BL[2] BLB[2] GND VDD SRAM_CELL
X_cell_0_3 WL0 BL[3] BLB[3] GND VDD SRAM_CELL
X_cell_0_4 WL0 BL[4] BLB[4] GND VDD SRAM_CELL
X_cell_0_5 WL0 BL[5] BLB[5] GND VDD SRAM_CELL
X_cell_0_6 WL0 BL[6] BLB[6] GND VDD SRAM_CELL
X_cell_0_7 WL0 BL[7] BLB[7] GND VDD SRAM_CELL
X_cell_0_8 WL0 BL[8] BLB[8] GND VDD SRAM_CELL
X_cell_0_9 WL0 BL[9] BLB[9] GND VDD SRAM_CELL
X_cell_0_10 WL0 BL[10] BLB[10] GND VDD SRAM_CELL
X_cell_0_11 WL0 BL[11] BLB[11] GND VDD SRAM_CELL
X_cell_0_12 WL0 BL[12] BLB[12] GND VDD SRAM_CELL
X_cell_0_13 WL0 BL[13] BLB[13] GND VDD SRAM_CELL
X_cell_0_14 WL0 BL[14] BLB[14] GND VDD SRAM_CELL
X_cell_0_15 WL0 BL[15] BLB[15] GND VDD SRAM_CELL
X_cell_0_16 WL0 BL[16] BLB[16] GND VDD SRAM_CELL
X_cell_0_17 WL0 BL[17] BLB[17] GND VDD SRAM_CELL
X_cell_0_18 WL0 BL[18] BLB[18] GND VDD SRAM_CELL
X_cell_0_19 WL0 BL[19] BLB[19] GND VDD SRAM_CELL
X_cell_0_20 WL0 BL[20] BLB[20] GND VDD SRAM_CELL
X_cell_0_21 WL0 BL[21] BLB[21] GND VDD SRAM_CELL
X_cell_0_22 WL0 BL[22] BLB[22] GND VDD SRAM_CELL
X_cell_0_23 WL0 BL[23] BLB[23] GND VDD SRAM_CELL
X_cell_0_24 WL0 BL[24] BLB[24] GND VDD SRAM_CELL
X_cell_0_25 WL0 BL[25] BLB[25] GND VDD SRAM_CELL
X_cell_0_26 WL0 BL[26] BLB[26] GND VDD SRAM_CELL
X_cell_0_27 WL0 BL[27] BLB[27] GND VDD SRAM_CELL
X_cell_0_28 WL0 BL[28] BLB[28] GND VDD SRAM_CELL
X_cell_0_29 WL0 BL[29] BLB[29] GND VDD SRAM_CELL
X_cell_0_30 WL0 BL[30] BLB[30] GND VDD SRAM_CELL
X_cell_0_31 WL0 BL[31] BLB[31] GND VDD SRAM_CELL
* Row 1
X_cell_1_0 WL1 BL[0] BLB[0] GND VDD SRAM_CELL
X_cell_1_1 WL1 BL[1] BLB[1] GND VDD SRAM_CELL
X_cell_1_2 WL1 BL[2] BLB[2] GND VDD SRAM_CELL
X_cell_1_3 WL1 BL[3] BLB[3] GND VDD SRAM_CELL
X_cell_1_4 WL1 BL[4] BLB[4] GND VDD SRAM_CELL
X_cell_1_5 WL1 BL[5] BLB[5] GND VDD SRAM_CELL
X_cell_1_6 WL1 BL[6] BLB[6] GND VDD SRAM_CELL
X_cell_1_7 WL1 BL[7] BLB[7] GND VDD SRAM_CELL
X_cell_1_8 WL1 BL[8] BLB[8] GND VDD SRAM_CELL
X_cell_1_9 WL1 BL[9] BLB[9] GND VDD SRAM_CELL
X_cell_1_10 WL1 BL[10] BLB[10] GND VDD SRAM_CELL
X_cell_1_11 WL1 BL[11] BLB[11] GND VDD SRAM_CELL
X_cell_1_12 WL1 BL[12] BLB[12] GND VDD SRAM_CELL
X_cell_1_13 WL1 BL[13] BLB[13] GND VDD SRAM_CELL
X_cell_1_14 WL1 BL[14] BLB[14] GND VDD SRAM_CELL
X_cell_1_15 WL1 BL[15] BLB[15] GND VDD SRAM_CELL
X_cell_1_16 WL1 BL[16] BLB[16] GND VDD SRAM_CELL
X_cell_1_17 WL1 BL[17] BLB[17] GND VDD SRAM_CELL
X_cell_1_18 WL1 BL[18] BLB[18] GND VDD SRAM_CELL
X_cell_1_19 WL1 BL[19] BLB[19] GND VDD SRAM_CELL
X_cell_1_20 WL1 BL[20] BLB[20] GND VDD SRAM_CELL
X_cell_1_21 WL1 BL[21] BLB[21] GND VDD SRAM_CELL
X_cell_1_22 WL1 BL[22] BLB[22] GND VDD SRAM_CELL
X_cell_1_23 WL1 BL[23] BLB[23] GND VDD SRAM_CELL
X_cell_1_24 WL1 BL[24] BLB[24] GND VDD SRAM_CELL
X_cell_1_25 WL1 BL[25] BLB[25] GND VDD SRAM_CELL
X_cell_1_26 WL1 BL[26] BLB[26] GND VDD SRAM_CELL
X_cell_1_27 WL1 BL[27] BLB[27] GND VDD SRAM_CELL
X_cell_1_28 WL1 BL[28] BLB[28] GND VDD SRAM_CELL
X_cell_1_29 WL1 BL[29] BLB[29] GND VDD SRAM_CELL
X_cell_1_30 WL1 BL[30] BLB[30] GND VDD SRAM_CELL
X_cell_1_31 WL1 BL[31] BLB[31] GND VDD SRAM_CELL
* Row 2
X_cell_2_0 WL2 BL[0] BLB[0] GND VDD SRAM_CELL
X_cell_2_1 WL2 BL[1] BLB[1] GND VDD SRAM_CELL
X_cell_2_2 WL2 BL[2] BLB[2] GND VDD SRAM_CELL
X_cell_2_3 WL2 BL[3] BLB[3] GND VDD SRAM_CELL
X_cell_2_4 WL2 BL[4] BLB[4] GND VDD SRAM_CELL
X_cell_2_5 WL2 BL[5] BLB[5] GND VDD SRAM_CELL
X_cell_2_6 WL2 BL[6] BLB[6] GND VDD SRAM_CELL
X_cell_2_7 WL2 BL[7] BLB[7] GND VDD SRAM_CELL
X_cell_2_8 WL2 BL[8] BLB[8] GND VDD SRAM_CELL
X_cell_2_9 WL2 BL[9] BLB[9] GND VDD SRAM_CELL
X_cell_2_10 WL2 BL[10] BLB[10] GND VDD SRAM_CELL
X_cell_2_11 WL2 BL[11] BLB[11] GND VDD SRAM_CELL
X_cell_2_12 WL2 BL[12] BLB[12] GND VDD SRAM_CELL
X_cell_2_13 WL2 BL[13] BLB[13] GND VDD SRAM_CELL
X_cell_2_14 WL2 BL[14] BLB[14] GND VDD SRAM_CELL
X_cell_2_15 WL2 BL[15] BLB[15] GND VDD SRAM_CELL
X_cell_2_16 WL2 BL[16] BLB[16] GND VDD SRAM_CELL
X_cell_2_17 WL2 BL[17] BLB[17] GND VDD SRAM_CELL
X_cell_2_18 WL2 BL[18] BLB[18] GND VDD SRAM_CELL
X_cell_2_19 WL2 BL[19] BLB[19] GND VDD SRAM_CELL
X_cell_2_20 WL2 BL[20] BLB[20] GND VDD SRAM_CELL
X_cell_2_21 WL2 BL[21] BLB[21] GND VDD SRAM_CELL
X_cell_2_22 WL2 BL[22] BLB[22] GND VDD SRAM_CELL
X_cell_2_23 WL2 BL[23] BLB[23] GND VDD SRAM_CELL
X_cell_2_24 WL2 BL[24] BLB[24] GND VDD SRAM_CELL
X_cell_2_25 WL2 BL[25] BLB[25] GND VDD SRAM_CELL
X_cell_2_26 WL2 BL[26] BLB[26] GND VDD SRAM_CELL
X_cell_2_27 WL2 BL[27] BLB[27] GND VDD SRAM_CELL
X_cell_2_28 WL2 BL[28] BLB[28] GND VDD SRAM_CELL
X_cell_2_29 WL2 BL[29] BLB[29] GND VDD SRAM_CELL
X_cell_2_30 WL2 BL[30] BLB[30] GND VDD SRAM_CELL
X_cell_2_31 WL2 BL[31] BLB[31] GND VDD SRAM_CELL
* Row 3
X_cell_3_0 WL3 BL[0] BLB[0] GND VDD SRAM_CELL
X_cell_3_1 WL3 BL[1] BLB[1] GND VDD SRAM_CELL
X_cell_3_2 WL3 BL[2] BLB[2] GND VDD SRAM_CELL
X_cell_3_3 WL3 BL[3] BLB[3] GND VDD SRAM_CELL
X_cell_3_4 WL3 BL[4] BLB[4] GND VDD SRAM_CELL
X_cell_3_5 WL3 BL[5] BLB[5] GND VDD SRAM_CELL
X_cell_3_6 WL3 BL[6] BLB[6] GND VDD SRAM_CELL
X_cell_3_7 WL3 BL[7] BLB[7] GND VDD SRAM_CELL
X_cell_3_8 WL3 BL[8] BLB[8] GND VDD SRAM_CELL
X_cell_3_9 WL3 BL[9] BLB[9] GND VDD SRAM_CELL
X_cell_3_10 WL3 BL[10] BLB[10] GND VDD SRAM_CELL
X_cell_3_11 WL3 BL[11] BLB[11] GND VDD SRAM_CELL
X_cell_3_12 WL3 BL[12] BLB[12] GND VDD SRAM_CELL
X_cell_3_13 WL3 BL[13] BLB[13] GND VDD SRAM_CELL
X_cell_3_14 WL3 BL[14] BLB[14] GND VDD SRAM_CELL
X_cell_3_15 WL3 BL[15] BLB[15] GND VDD SRAM_CELL
X_cell_3_16 WL3 BL[16] BLB[16] GND VDD SRAM_CELL
X_cell_3_17 WL3 BL[17] BLB[17] GND VDD SRAM_CELL
X_cell_3_18 WL3 BL[18] BLB[18] GND VDD SRAM_CELL
X_cell_3_19 WL3 BL[19] BLB[19] GND VDD SRAM_CELL
X_cell_3_20 WL3 BL[20] BLB[20] GND VDD SRAM_CELL
X_cell_3_21 WL3 BL[21] BLB[21] GND VDD SRAM_CELL
X_cell_3_22 WL3 BL[22] BLB[22] GND VDD SRAM_CELL
X_cell_3_23 WL3 BL[23] BLB[23] GND VDD SRAM_CELL
X_cell_3_24 WL3 BL[24] BLB[24] GND VDD SRAM_CELL
X_cell_3_25 WL3 BL[25] BLB[25] GND VDD SRAM_CELL
X_cell_3_26 WL3 BL[26] BLB[26] GND VDD SRAM_CELL
X_cell_3_27 WL3 BL[27] BLB[27] GND VDD SRAM_CELL
X_cell_3_28 WL3 BL[28] BLB[28] GND VDD SRAM_CELL
X_cell_3_29 WL3 BL[29] BLB[29] GND VDD SRAM_CELL
X_cell_3_30 WL3 BL[30] BLB[30] GND VDD SRAM_CELL
X_cell_3_31 WL3 BL[31] BLB[31] GND VDD SRAM_CELL
* Row 4
X_cell_4_0 WL4 BL[0] BLB[0] GND VDD SRAM_CELL
X_cell_4_1 WL4 BL[1] BLB[1] GND VDD SRAM_CELL
X_cell_4_2 WL4 BL[2] BLB[2] GND VDD SRAM_CELL
X_cell_4_3 WL4 BL[3] BLB[3] GND VDD SRAM_CELL
X_cell_4_4 WL4 BL[4] BLB[4] GND VDD SRAM_CELL
X_cell_4_5 WL4 BL[5] BLB[5] GND VDD SRAM_CELL
X_cell_4_6 WL4 BL[6] BLB[6] GND VDD SRAM_CELL
X_cell_4_7 WL4 BL[7] BLB[7] GND VDD SRAM_CELL
X_cell_4_8 WL4 BL[8] BLB[8] GND VDD SRAM_CELL
X_cell_4_9 WL4 BL[9] BLB[9] GND VDD SRAM_CELL
X_cell_4_10 WL4 BL[10] BLB[10] GND VDD SRAM_CELL
X_cell_4_11 WL4 BL[11] BLB[11] GND VDD SRAM_CELL
X_cell_4_12 WL4 BL[12] BLB[12] GND VDD SRAM_CELL
X_cell_4_13 WL4 BL[13] BLB[13] GND VDD SRAM_CELL
X_cell_4_14 WL4 BL[14] BLB[14] GND VDD SRAM_CELL
X_cell_4_15 WL4 BL[15] BLB[15] GND VDD SRAM_CELL
X_cell_4_16 WL4 BL[16] BLB[16] GND VDD SRAM_CELL
X_cell_4_17 WL4 BL[17] BLB[17] GND VDD SRAM_CELL
X_cell_4_18 WL4 BL[18] BLB[18] GND VDD SRAM_CELL
X_cell_4_19 WL4 BL[19] BLB[19] GND VDD SRAM_CELL
X_cell_4_20 WL4 BL[20] BLB[20] GND VDD SRAM_CELL
X_cell_4_21 WL4 BL[21] BLB[21] GND VDD SRAM_CELL
X_cell_4_22 WL4 BL[22] BLB[22] GND VDD SRAM_CELL
X_cell_4_23 WL4 BL[23] BLB[23] GND VDD SRAM_CELL
X_cell_4_24 WL4 BL[24] BLB[24] GND VDD SRAM_CELL
X_cell_4_25 WL4 BL[25] BLB[25] GND VDD SRAM_CELL
X_cell_4_26 WL4 BL[26] BLB[26] GND VDD SRAM_CELL
X_cell_4_27 WL4 BL[27] BLB[27] GND VDD SRAM_CELL
X_cell_4_28 WL4 BL[28] BLB[28] GND VDD SRAM_CELL
X_cell_4_29 WL4 BL[29] BLB[29] GND VDD SRAM_CELL
X_cell_4_30 WL4 BL[30] BLB[30] GND VDD SRAM_CELL
X_cell_4_31 WL4 BL[31] BLB[31] GND VDD SRAM_CELL
* Row 5
X_cell_5_0 WL5 BL[0] BLB[0] GND VDD SRAM_CELL
X_cell_5_1 WL5 BL[1] BLB[1] GND VDD SRAM_CELL
X_cell_5_2 WL5 BL[2] BLB[2] GND VDD SRAM_CELL
X_cell_5_3 WL5 BL[3] BLB[3] GND VDD SRAM_CELL
X_cell_5_4 WL5 BL[4] BLB[4] GND VDD SRAM_CELL
X_cell_5_5 WL5 BL[5] BLB[5] GND VDD SRAM_CELL
X_cell_5_6 WL5 BL[6] BLB[6] GND VDD SRAM_CELL
X_cell_5_7 WL5 BL[7] BLB[7] GND VDD SRAM_CELL
X_cell_5_8 WL5 BL[8] BLB[8] GND VDD SRAM_CELL
X_cell_5_9 WL5 BL[9] BLB[9] GND VDD SRAM_CELL
X_cell_5_10 WL5 BL[10] BLB[10] GND VDD SRAM_CELL
X_cell_5_11 WL5 BL[11] BLB[11] GND VDD SRAM_CELL
X_cell_5_12 WL5 BL[12] BLB[12] GND VDD SRAM_CELL
X_cell_5_13 WL5 BL[13] BLB[13] GND VDD SRAM_CELL
X_cell_5_14 WL5 BL[14] BLB[14] GND VDD SRAM_CELL
X_cell_5_15 WL5 BL[15] BLB[15] GND VDD SRAM_CELL
X_cell_5_16 WL5 BL[16] BLB[16] GND VDD SRAM_CELL
X_cell_5_17 WL5 BL[17] BLB[17] GND VDD SRAM_CELL
X_cell_5_18 WL5 BL[18] BLB[18] GND VDD SRAM_CELL
X_cell_5_19 WL5 BL[19] BLB[19] GND VDD SRAM_CELL
X_cell_5_20 WL5 BL[20] BLB[20] GND VDD SRAM_CELL
X_cell_5_21 WL5 BL[21] BLB[21] GND VDD SRAM_CELL
X_cell_5_22 WL5 BL[22] BLB[22] GND VDD SRAM_CELL
X_cell_5_23 WL5 BL[23] BLB[23] GND VDD SRAM_CELL
X_cell_5_24 WL5 BL[24] BLB[24] GND VDD SRAM_CELL
X_cell_5_25 WL5 BL[25] BLB[25] GND VDD SRAM_CELL
X_cell_5_26 WL5 BL[26] BLB[26] GND VDD SRAM_CELL
X_cell_5_27 WL5 BL[27] BLB[27] GND VDD SRAM_CELL
X_cell_5_28 WL5 BL[28] BLB[28] GND VDD SRAM_CELL
X_cell_5_29 WL5 BL[29] BLB[29] GND VDD SRAM_CELL
X_cell_5_30 WL5 BL[30] BLB[30] GND VDD SRAM_CELL
X_cell_5_31 WL5 BL[31] BLB[31] GND VDD SRAM_CELL
* Row 6
X_cell_6_0 WL6 BL[0] BLB[0] GND VDD SRAM_CELL
X_cell_6_1 WL6 BL[1] BLB[1] GND VDD SRAM_CELL
X_cell_6_2 WL6 BL[2] BLB[2] GND VDD SRAM_CELL
X_cell_6_3 WL6 BL[3] BLB[3] GND VDD SRAM_CELL
X_cell_6_4 WL6 BL[4] BLB[4] GND VDD SRAM_CELL
X_cell_6_5 WL6 BL[5] BLB[5] GND VDD SRAM_CELL
X_cell_6_6 WL6 BL[6] BLB[6] GND VDD SRAM_CELL
X_cell_6_7 WL6 BL[7] BLB[7] GND VDD SRAM_CELL
X_cell_6_8 WL6 BL[8] BLB[8] GND VDD SRAM_CELL
X_cell_6_9 WL6 BL[9] BLB[9] GND VDD SRAM_CELL
X_cell_6_10 WL6 BL[10] BLB[10] GND VDD SRAM_CELL
X_cell_6_11 WL6 BL[11] BLB[11] GND VDD SRAM_CELL
X_cell_6_12 WL6 BL[12] BLB[12] GND VDD SRAM_CELL
X_cell_6_13 WL6 BL[13] BLB[13] GND VDD SRAM_CELL
X_cell_6_14 WL6 BL[14] BLB[14] GND VDD SRAM_CELL
X_cell_6_15 WL6 BL[15] BLB[15] GND VDD SRAM_CELL
X_cell_6_16 WL6 BL[16] BLB[16] GND VDD SRAM_CELL
X_cell_6_17 WL6 BL[17] BLB[17] GND VDD SRAM_CELL
X_cell_6_18 WL6 BL[18] BLB[18] GND VDD SRAM_CELL
X_cell_6_19 WL6 BL[19] BLB[19] GND VDD SRAM_CELL
X_cell_6_20 WL6 BL[20] BLB[20] GND VDD SRAM_CELL
X_cell_6_21 WL6 BL[21] BLB[21] GND VDD SRAM_CELL
X_cell_6_22 WL6 BL[22] BLB[22] GND VDD SRAM_CELL
X_cell_6_23 WL6 BL[23] BLB[23] GND VDD SRAM_CELL
X_cell_6_24 WL6 BL[24] BLB[24] GND VDD SRAM_CELL
X_cell_6_25 WL6 BL[25] BLB[25] GND VDD SRAM_CELL
X_cell_6_26 WL6 BL[26] BLB[26] GND VDD SRAM_CELL
X_cell_6_27 WL6 BL[27] BLB[27] GND VDD SRAM_CELL
X_cell_6_28 WL6 BL[28] BLB[28] GND VDD SRAM_CELL
X_cell_6_29 WL6 BL[29] BLB[29] GND VDD SRAM_CELL
X_cell_6_30 WL6 BL[30] BLB[30] GND VDD SRAM_CELL
X_cell_6_31 WL6 BL[31] BLB[31] GND VDD SRAM_CELL
* Row 7
X_cell_7_0 WL7 BL[0] BLB[0] GND VDD SRAM_CELL
X_cell_7_1 WL7 BL[1] BLB[1] GND VDD SRAM_CELL
X_cell_7_2 WL7 BL[2] BLB[2] GND VDD SRAM_CELL
X_cell_7_3 WL7 BL[3] BLB[3] GND VDD SRAM_CELL
X_cell_7_4 WL7 BL[4] BLB[4] GND VDD SRAM_CELL
X_cell_7_5 WL7 BL[5] BLB[5] GND VDD SRAM_CELL
X_cell_7_6 WL7 BL[6] BLB[6] GND VDD SRAM_CELL
X_cell_7_7 WL7 BL[7] BLB[7] GND VDD SRAM_CELL
X_cell_7_8 WL7 BL[8] BLB[8] GND VDD SRAM_CELL
X_cell_7_9 WL7 BL[9] BLB[9] GND VDD SRAM_CELL
X_cell_7_10 WL7 BL[10] BLB[10] GND VDD SRAM_CELL
X_cell_7_11 WL7 BL[11] BLB[11] GND VDD SRAM_CELL
X_cell_7_12 WL7 BL[12] BLB[12] GND VDD SRAM_CELL
X_cell_7_13 WL7 BL[13] BLB[13] GND VDD SRAM_CELL
X_cell_7_14 WL7 BL[14] BLB[14] GND VDD SRAM_CELL
X_cell_7_15 WL7 BL[15] BLB[15] GND VDD SRAM_CELL
X_cell_7_16 WL7 BL[16] BLB[16] GND VDD SRAM_CELL
X_cell_7_17 WL7 BL[17] BLB[17] GND VDD SRAM_CELL
X_cell_7_18 WL7 BL[18] BLB[18] GND VDD SRAM_CELL
X_cell_7_19 WL7 BL[19] BLB[19] GND VDD SRAM_CELL
X_cell_7_20 WL7 BL[20] BLB[20] GND VDD SRAM_CELL
X_cell_7_21 WL7 BL[21] BLB[21] GND VDD SRAM_CELL
X_cell_7_22 WL7 BL[22] BLB[22] GND VDD SRAM_CELL
X_cell_7_23 WL7 BL[23] BLB[23] GND VDD SRAM_CELL
X_cell_7_24 WL7 BL[24] BLB[24] GND VDD SRAM_CELL
X_cell_7_25 WL7 BL[25] BLB[25] GND VDD SRAM_CELL
X_cell_7_26 WL7 BL[26] BLB[26] GND VDD SRAM_CELL
X_cell_7_27 WL7 BL[27] BLB[27] GND VDD SRAM_CELL
X_cell_7_28 WL7 BL[28] BLB[28] GND VDD SRAM_CELL
X_cell_7_29 WL7 BL[29] BLB[29] GND VDD SRAM_CELL
X_cell_7_30 WL7 BL[30] BLB[30] GND VDD SRAM_CELL
X_cell_7_31 WL7 BL[31] BLB[31] GND VDD SRAM_CELL
* Row 8
X_cell_8_0 WL8 BL[0] BLB[0] GND VDD SRAM_CELL
X_cell_8_1 WL8 BL[1] BLB[1] GND VDD SRAM_CELL
X_cell_8_2 WL8 BL[2] BLB[2] GND VDD SRAM_CELL
X_cell_8_3 WL8 BL[3] BLB[3] GND VDD SRAM_CELL
X_cell_8_4 WL8 BL[4] BLB[4] GND VDD SRAM_CELL
X_cell_8_5 WL8 BL[5] BLB[5] GND VDD SRAM_CELL
X_cell_8_6 WL8 BL[6] BLB[6] GND VDD SRAM_CELL
X_cell_8_7 WL8 BL[7] BLB[7] GND VDD SRAM_CELL
X_cell_8_8 WL8 BL[8] BLB[8] GND VDD SRAM_CELL
X_cell_8_9 WL8 BL[9] BLB[9] GND VDD SRAM_CELL
X_cell_8_10 WL8 BL[10] BLB[10] GND VDD SRAM_CELL
X_cell_8_11 WL8 BL[11] BLB[11] GND VDD SRAM_CELL
X_cell_8_12 WL8 BL[12] BLB[12] GND VDD SRAM_CELL
X_cell_8_13 WL8 BL[13] BLB[13] GND VDD SRAM_CELL
X_cell_8_14 WL8 BL[14] BLB[14] GND VDD SRAM_CELL
X_cell_8_15 WL8 BL[15] BLB[15] GND VDD SRAM_CELL
X_cell_8_16 WL8 BL[16] BLB[16] GND VDD SRAM_CELL
X_cell_8_17 WL8 BL[17] BLB[17] GND VDD SRAM_CELL
X_cell_8_18 WL8 BL[18] BLB[18] GND VDD SRAM_CELL
X_cell_8_19 WL8 BL[19] BLB[19] GND VDD SRAM_CELL
X_cell_8_20 WL8 BL[20] BLB[20] GND VDD SRAM_CELL
X_cell_8_21 WL8 BL[21] BLB[21] GND VDD SRAM_CELL
X_cell_8_22 WL8 BL[22] BLB[22] GND VDD SRAM_CELL
X_cell_8_23 WL8 BL[23] BLB[23] GND VDD SRAM_CELL
X_cell_8_24 WL8 BL[24] BLB[24] GND VDD SRAM_CELL
X_cell_8_25 WL8 BL[25] BLB[25] GND VDD SRAM_CELL
X_cell_8_26 WL8 BL[26] BLB[26] GND VDD SRAM_CELL
X_cell_8_27 WL8 BL[27] BLB[27] GND VDD SRAM_CELL
X_cell_8_28 WL8 BL[28] BLB[28] GND VDD SRAM_CELL
X_cell_8_29 WL8 BL[29] BLB[29] GND VDD SRAM_CELL
X_cell_8_30 WL8 BL[30] BLB[30] GND VDD SRAM_CELL
X_cell_8_31 WL8 BL[31] BLB[31] GND VDD SRAM_CELL
* Row 9
X_cell_9_0 WL9 BL[0] BLB[0] GND VDD SRAM_CELL
X_cell_9_1 WL9 BL[1] BLB[1] GND VDD SRAM_CELL
X_cell_9_2 WL9 BL[2] BLB[2] GND VDD SRAM_CELL
X_cell_9_3 WL9 BL[3] BLB[3] GND VDD SRAM_CELL
X_cell_9_4 WL9 BL[4] BLB[4] GND VDD SRAM_CELL
X_cell_9_5 WL9 BL[5] BLB[5] GND VDD SRAM_CELL
X_cell_9_6 WL9 BL[6] BLB[6] GND VDD SRAM_CELL
X_cell_9_7 WL9 BL[7] BLB[7] GND VDD SRAM_CELL
X_cell_9_8 WL9 BL[8] BLB[8] GND VDD SRAM_CELL
X_cell_9_9 WL9 BL[9] BLB[9] GND VDD SRAM_CELL
X_cell_9_10 WL9 BL[10] BLB[10] GND VDD SRAM_CELL
X_cell_9_11 WL9 BL[11] BLB[11] GND VDD SRAM_CELL
X_cell_9_12 WL9 BL[12] BLB[12] GND VDD SRAM_CELL
X_cell_9_13 WL9 BL[13] BLB[13] GND VDD SRAM_CELL
X_cell_9_14 WL9 BL[14] BLB[14] GND VDD SRAM_CELL
X_cell_9_15 WL9 BL[15] BLB[15] GND VDD SRAM_CELL
X_cell_9_16 WL9 BL[16] BLB[16] GND VDD SRAM_CELL
X_cell_9_17 WL9 BL[17] BLB[17] GND VDD SRAM_CELL
X_cell_9_18 WL9 BL[18] BLB[18] GND VDD SRAM_CELL
X_cell_9_19 WL9 BL[19] BLB[19] GND VDD SRAM_CELL
X_cell_9_20 WL9 BL[20] BLB[20] GND VDD SRAM_CELL
X_cell_9_21 WL9 BL[21] BLB[21] GND VDD SRAM_CELL
X_cell_9_22 WL9 BL[22] BLB[22] GND VDD SRAM_CELL
X_cell_9_23 WL9 BL[23] BLB[23] GND VDD SRAM_CELL
X_cell_9_24 WL9 BL[24] BLB[24] GND VDD SRAM_CELL
X_cell_9_25 WL9 BL[25] BLB[25] GND VDD SRAM_CELL
X_cell_9_26 WL9 BL[26] BLB[26] GND VDD SRAM_CELL
X_cell_9_27 WL9 BL[27] BLB[27] GND VDD SRAM_CELL
X_cell_9_28 WL9 BL[28] BLB[28] GND VDD SRAM_CELL
X_cell_9_29 WL9 BL[29] BLB[29] GND VDD SRAM_CELL
X_cell_9_30 WL9 BL[30] BLB[30] GND VDD SRAM_CELL
X_cell_9_31 WL9 BL[31] BLB[31] GND VDD SRAM_CELL
* Row 10
X_cell_10_0 WL10 BL[0] BLB[0] GND VDD SRAM_CELL
X_cell_10_1 WL10 BL[1] BLB[1] GND VDD SRAM_CELL
X_cell_10_2 WL10 BL[2] BLB[2] GND VDD SRAM_CELL
X_cell_10_3 WL10 BL[3] BLB[3] GND VDD SRAM_CELL
X_cell_10_4 WL10 BL[4] BLB[4] GND VDD SRAM_CELL
X_cell_10_5 WL10 BL[5] BLB[5] GND VDD SRAM_CELL
X_cell_10_6 WL10 BL[6] BLB[6] GND VDD SRAM_CELL
X_cell_10_7 WL10 BL[7] BLB[7] GND VDD SRAM_CELL
X_cell_10_8 WL10 BL[8] BLB[8] GND VDD SRAM_CELL
X_cell_10_9 WL10 BL[9] BLB[9] GND VDD SRAM_CELL
X_cell_10_10 WL10 BL[10] BLB[10] GND VDD SRAM_CELL
X_cell_10_11 WL10 BL[11] BLB[11] GND VDD SRAM_CELL
X_cell_10_12 WL10 BL[12] BLB[12] GND VDD SRAM_CELL
X_cell_10_13 WL10 BL[13] BLB[13] GND VDD SRAM_CELL
X_cell_10_14 WL10 BL[14] BLB[14] GND VDD SRAM_CELL
X_cell_10_15 WL10 BL[15] BLB[15] GND VDD SRAM_CELL
X_cell_10_16 WL10 BL[16] BLB[16] GND VDD SRAM_CELL
X_cell_10_17 WL10 BL[17] BLB[17] GND VDD SRAM_CELL
X_cell_10_18 WL10 BL[18] BLB[18] GND VDD SRAM_CELL
X_cell_10_19 WL10 BL[19] BLB[19] GND VDD SRAM_CELL
X_cell_10_20 WL10 BL[20] BLB[20] GND VDD SRAM_CELL
X_cell_10_21 WL10 BL[21] BLB[21] GND VDD SRAM_CELL
X_cell_10_22 WL10 BL[22] BLB[22] GND VDD SRAM_CELL
X_cell_10_23 WL10 BL[23] BLB[23] GND VDD SRAM_CELL
X_cell_10_24 WL10 BL[24] BLB[24] GND VDD SRAM_CELL
X_cell_10_25 WL10 BL[25] BLB[25] GND VDD SRAM_CELL
X_cell_10_26 WL10 BL[26] BLB[26] GND VDD SRAM_CELL
X_cell_10_27 WL10 BL[27] BLB[27] GND VDD SRAM_CELL
X_cell_10_28 WL10 BL[28] BLB[28] GND VDD SRAM_CELL
X_cell_10_29 WL10 BL[29] BLB[29] GND VDD SRAM_CELL
X_cell_10_30 WL10 BL[30] BLB[30] GND VDD SRAM_CELL
X_cell_10_31 WL10 BL[31] BLB[31] GND VDD SRAM_CELL
* Row 11
X_cell_11_0 WL11 BL[0] BLB[0] GND VDD SRAM_CELL
X_cell_11_1 WL11 BL[1] BLB[1] GND VDD SRAM_CELL
X_cell_11_2 WL11 BL[2] BLB[2] GND VDD SRAM_CELL
X_cell_11_3 WL11 BL[3] BLB[3] GND VDD SRAM_CELL
X_cell_11_4 WL11 BL[4] BLB[4] GND VDD SRAM_CELL
X_cell_11_5 WL11 BL[5] BLB[5] GND VDD SRAM_CELL
X_cell_11_6 WL11 BL[6] BLB[6] GND VDD SRAM_CELL
X_cell_11_7 WL11 BL[7] BLB[7] GND VDD SRAM_CELL
X_cell_11_8 WL11 BL[8] BLB[8] GND VDD SRAM_CELL
X_cell_11_9 WL11 BL[9] BLB[9] GND VDD SRAM_CELL
X_cell_11_10 WL11 BL[10] BLB[10] GND VDD SRAM_CELL
X_cell_11_11 WL11 BL[11] BLB[11] GND VDD SRAM_CELL
X_cell_11_12 WL11 BL[12] BLB[12] GND VDD SRAM_CELL
X_cell_11_13 WL11 BL[13] BLB[13] GND VDD SRAM_CELL
X_cell_11_14 WL11 BL[14] BLB[14] GND VDD SRAM_CELL
X_cell_11_15 WL11 BL[15] BLB[15] GND VDD SRAM_CELL
X_cell_11_16 WL11 BL[16] BLB[16] GND VDD SRAM_CELL
X_cell_11_17 WL11 BL[17] BLB[17] GND VDD SRAM_CELL
X_cell_11_18 WL11 BL[18] BLB[18] GND VDD SRAM_CELL
X_cell_11_19 WL11 BL[19] BLB[19] GND VDD SRAM_CELL
X_cell_11_20 WL11 BL[20] BLB[20] GND VDD SRAM_CELL
X_cell_11_21 WL11 BL[21] BLB[21] GND VDD SRAM_CELL
X_cell_11_22 WL11 BL[22] BLB[22] GND VDD SRAM_CELL
X_cell_11_23 WL11 BL[23] BLB[23] GND VDD SRAM_CELL
X_cell_11_24 WL11 BL[24] BLB[24] GND VDD SRAM_CELL
X_cell_11_25 WL11 BL[25] BLB[25] GND VDD SRAM_CELL
X_cell_11_26 WL11 BL[26] BLB[26] GND VDD SRAM_CELL
X_cell_11_27 WL11 BL[27] BLB[27] GND VDD SRAM_CELL
X_cell_11_28 WL11 BL[28] BLB[28] GND VDD SRAM_CELL
X_cell_11_29 WL11 BL[29] BLB[29] GND VDD SRAM_CELL
X_cell_11_30 WL11 BL[30] BLB[30] GND VDD SRAM_CELL
X_cell_11_31 WL11 BL[31] BLB[31] GND VDD SRAM_CELL
* Row 12
X_cell_12_0 WL12 BL[0] BLB[0] GND VDD SRAM_CELL
X_cell_12_1 WL12 BL[1] BLB[1] GND VDD SRAM_CELL
X_cell_12_2 WL12 BL[2] BLB[2] GND VDD SRAM_CELL
X_cell_12_3 WL12 BL[3] BLB[3] GND VDD SRAM_CELL
X_cell_12_4 WL12 BL[4] BLB[4] GND VDD SRAM_CELL
X_cell_12_5 WL12 BL[5] BLB[5] GND VDD SRAM_CELL
X_cell_12_6 WL12 BL[6] BLB[6] GND VDD SRAM_CELL
X_cell_12_7 WL12 BL[7] BLB[7] GND VDD SRAM_CELL
X_cell_12_8 WL12 BL[8] BLB[8] GND VDD SRAM_CELL
X_cell_12_9 WL12 BL[9] BLB[9] GND VDD SRAM_CELL
X_cell_12_10 WL12 BL[10] BLB[10] GND VDD SRAM_CELL
X_cell_12_11 WL12 BL[11] BLB[11] GND VDD SRAM_CELL
X_cell_12_12 WL12 BL[12] BLB[12] GND VDD SRAM_CELL
X_cell_12_13 WL12 BL[13] BLB[13] GND VDD SRAM_CELL
X_cell_12_14 WL12 BL[14] BLB[14] GND VDD SRAM_CELL
X_cell_12_15 WL12 BL[15] BLB[15] GND VDD SRAM_CELL
X_cell_12_16 WL12 BL[16] BLB[16] GND VDD SRAM_CELL
X_cell_12_17 WL12 BL[17] BLB[17] GND VDD SRAM_CELL
X_cell_12_18 WL12 BL[18] BLB[18] GND VDD SRAM_CELL
X_cell_12_19 WL12 BL[19] BLB[19] GND VDD SRAM_CELL
X_cell_12_20 WL12 BL[20] BLB[20] GND VDD SRAM_CELL
X_cell_12_21 WL12 BL[21] BLB[21] GND VDD SRAM_CELL
X_cell_12_22 WL12 BL[22] BLB[22] GND VDD SRAM_CELL
X_cell_12_23 WL12 BL[23] BLB[23] GND VDD SRAM_CELL
X_cell_12_24 WL12 BL[24] BLB[24] GND VDD SRAM_CELL
X_cell_12_25 WL12 BL[25] BLB[25] GND VDD SRAM_CELL
X_cell_12_26 WL12 BL[26] BLB[26] GND VDD SRAM_CELL
X_cell_12_27 WL12 BL[27] BLB[27] GND VDD SRAM_CELL
X_cell_12_28 WL12 BL[28] BLB[28] GND VDD SRAM_CELL
X_cell_12_29 WL12 BL[29] BLB[29] GND VDD SRAM_CELL
X_cell_12_30 WL12 BL[30] BLB[30] GND VDD SRAM_CELL
X_cell_12_31 WL12 BL[31] BLB[31] GND VDD SRAM_CELL
* Row 13
X_cell_13_0 WL13 BL[0] BLB[0] GND VDD SRAM_CELL
X_cell_13_1 WL13 BL[1] BLB[1] GND VDD SRAM_CELL
X_cell_13_2 WL13 BL[2] BLB[2] GND VDD SRAM_CELL
X_cell_13_3 WL13 BL[3] BLB[3] GND VDD SRAM_CELL
X_cell_13_4 WL13 BL[4] BLB[4] GND VDD SRAM_CELL
X_cell_13_5 WL13 BL[5] BLB[5] GND VDD SRAM_CELL
X_cell_13_6 WL13 BL[6] BLB[6] GND VDD SRAM_CELL
X_cell_13_7 WL13 BL[7] BLB[7] GND VDD SRAM_CELL
X_cell_13_8 WL13 BL[8] BLB[8] GND VDD SRAM_CELL
X_cell_13_9 WL13 BL[9] BLB[9] GND VDD SRAM_CELL
X_cell_13_10 WL13 BL[10] BLB[10] GND VDD SRAM_CELL
X_cell_13_11 WL13 BL[11] BLB[11] GND VDD SRAM_CELL
X_cell_13_12 WL13 BL[12] BLB[12] GND VDD SRAM_CELL
X_cell_13_13 WL13 BL[13] BLB[13] GND VDD SRAM_CELL
X_cell_13_14 WL13 BL[14] BLB[14] GND VDD SRAM_CELL
X_cell_13_15 WL13 BL[15] BLB[15] GND VDD SRAM_CELL
X_cell_13_16 WL13 BL[16] BLB[16] GND VDD SRAM_CELL
X_cell_13_17 WL13 BL[17] BLB[17] GND VDD SRAM_CELL
X_cell_13_18 WL13 BL[18] BLB[18] GND VDD SRAM_CELL
X_cell_13_19 WL13 BL[19] BLB[19] GND VDD SRAM_CELL
X_cell_13_20 WL13 BL[20] BLB[20] GND VDD SRAM_CELL
X_cell_13_21 WL13 BL[21] BLB[21] GND VDD SRAM_CELL
X_cell_13_22 WL13 BL[22] BLB[22] GND VDD SRAM_CELL
X_cell_13_23 WL13 BL[23] BLB[23] GND VDD SRAM_CELL
X_cell_13_24 WL13 BL[24] BLB[24] GND VDD SRAM_CELL
X_cell_13_25 WL13 BL[25] BLB[25] GND VDD SRAM_CELL
X_cell_13_26 WL13 BL[26] BLB[26] GND VDD SRAM_CELL
X_cell_13_27 WL13 BL[27] BLB[27] GND VDD SRAM_CELL
X_cell_13_28 WL13 BL[28] BLB[28] GND VDD SRAM_CELL
X_cell_13_29 WL13 BL[29] BLB[29] GND VDD SRAM_CELL
X_cell_13_30 WL13 BL[30] BLB[30] GND VDD SRAM_CELL
X_cell_13_31 WL13 BL[31] BLB[31] GND VDD SRAM_CELL
* Row 14
X_cell_14_0 WL14 BL[0] BLB[0] GND VDD SRAM_CELL
X_cell_14_1 WL14 BL[1] BLB[1] GND VDD SRAM_CELL
X_cell_14_2 WL14 BL[2] BLB[2] GND VDD SRAM_CELL
X_cell_14_3 WL14 BL[3] BLB[3] GND VDD SRAM_CELL
X_cell_14_4 WL14 BL[4] BLB[4] GND VDD SRAM_CELL
X_cell_14_5 WL14 BL[5] BLB[5] GND VDD SRAM_CELL
X_cell_14_6 WL14 BL[6] BLB[6] GND VDD SRAM_CELL
X_cell_14_7 WL14 BL[7] BLB[7] GND VDD SRAM_CELL
X_cell_14_8 WL14 BL[8] BLB[8] GND VDD SRAM_CELL
X_cell_14_9 WL14 BL[9] BLB[9] GND VDD SRAM_CELL
X_cell_14_10 WL14 BL[10] BLB[10] GND VDD SRAM_CELL
X_cell_14_11 WL14 BL[11] BLB[11] GND VDD SRAM_CELL
X_cell_14_12 WL14 BL[12] BLB[12] GND VDD SRAM_CELL
X_cell_14_13 WL14 BL[13] BLB[13] GND VDD SRAM_CELL
X_cell_14_14 WL14 BL[14] BLB[14] GND VDD SRAM_CELL
X_cell_14_15 WL14 BL[15] BLB[15] GND VDD SRAM_CELL